WEBVTT

00:13.146 --> 00:16.683
>> Woodruff: MORE U.S. TROOPS
WILL DEPLOY TO TRAIN AND ASSIST

00:16.683 --> 00:17.851
WILL DEPLOY TO TRAIN AND ASSIST
AQIIR FORCES IN THE FIGHT

00:17.851 --> 00:20.854
AQIIR FORCES IN THE FIGHT
AGAINST ISLAMIC STATE MILITANTS.

00:20.854 --> 00:21.922
AGAINST ISLAMIC STATE MILITANTS.
SEARCHING FOR SOLUTIONS TO

00:21.922 --> 00:23.624
SEARCHING FOR SOLUTIONS TO
DEFEAT AN INSURGENCY WITH NO END

00:23.624 --> 00:26.593
DEFEAT AN INSURGENCY WITH NO END
IN SIGHT.

00:26.593 --> 00:28.595
IN SIGHT.
GOOD EVENING, I'M JUDY WOODRUFF.

00:28.595 --> 00:29.997
GOOD EVENING, I'M JUDY WOODRUFF.
GWEN IFILL IS AWAY.

00:29.997 --> 00:32.399
GWEN IFILL IS AWAY.
ALSO AHEAD THIS WEDNESDAY:

00:32.399 --> 00:33.433
ALSO AHEAD THIS WEDNESDAY:
PROMISING NEWFOR S BATTLING BAD

00:33.433 --> 00:35.435
PROMISING NEWFOR S BATTLING BAD
CHOLESTEROL.

00:35.435 --> 00:37.971
CHOLESTEROL.
THE F.D.A. BACKS POTENT DRUGS

00:37.971 --> 00:38.572
THE F.D.A. BACKS POTENT DRUGS
THAT DOCTORS HOPE CAN PREVENT

00:38.572 --> 00:41.575
THAT DOCTORS HOPE CAN PREVENT
HEART DISEASE.

00:41.575 --> 00:42.542
HEART DISEASE.
THEN, THE FIRST LATINO POET

00:42.542 --> 00:44.645
THEN, THE FIRST LATINO POET
LAUREATE.

00:44.645 --> 00:46.046
LAUREATE.
JUAN FELIPE HERRERA SHARES HIS

00:46.046 --> 00:49.449
JUAN FELIPE HERRERA SHARES HIS
STORY AND POETRY.

00:49.449 --> 00:51.718
STORY AND POETRY.
PLUS, THE SHRINKING EVERGLADES:

00:51.718 --> 00:53.620
PLUS, THE SHRINKING EVERGLADES:
RISING SEAWATER INVADES FLORIDA,

00:53.620 --> 00:55.022
RISING SEAWATER INVADES FLORIDA,
THREATENING THE FRAGILE

00:55.022 --> 00:56.156
THREATENING THE FRAGILE
ECOSYSTEM OF UNPARALLELED

00:56.156 --> 00:58.659
ECOSYSTEM OF UNPARALLELED
WETLANDS.

00:58.659 --> 01:01.695
WETLANDS.
>> THE MORE OPEN WATER WE HAVE,

01:01.695 --> 01:04.131
>> THE MORE OPEN WATER WE HAVE,
THE LESS WE ARE ABLE TO SUSTAIN

01:04.131 --> 01:06.433
THE LESS WE ARE ABLE TO SUSTAIN
THE POTENTIAL IMPACTS FROM

01:06.433 --> 01:07.801
THE POTENTIAL IMPACTS FROM
STORMS THAT AFFECT US COMING

01:07.801 --> 01:09.903
STORMS THAT AFFECT US COMING
FROM THE GULF OF MEXICO.

01:09.903 --> 01:11.538
FROM THE GULF OF MEXICO.
>> Woodruff: THOSE ARE SOME OF

01:11.538 --> 01:12.572
>> Woodruff: THOSE ARE SOME OF
THE STORIES WE'RE COVERING ON

01:12.572 --> 01:14.574
THE STORIES WE'RE COVERING ON
TONIGHT'S PBS NEWSHOUR.

01:14.574 --> 01:26.286
>> Woodruff: WALL STREET BROKE
OUT OF A WEEK-LONG SLUMP TODAY

01:26.286 --> 01:26.920
OUT OF A WEEK-LONG SLUMP TODAY
AMID HOPES FOR A BREAK IN THE

01:26.920 --> 01:28.822
AMID HOPES FOR A BREAK IN THE
GREEK BAILOUT DRAMA.

01:28.822 --> 01:31.525
GREEK BAILOUT DRAMA.
THE DOW JONES INDUSTRIAL AVERAGE

01:31.525 --> 01:32.759
THE DOW JONES INDUSTRIAL AVERAGE
GAINED 236 POINTS TO CLOSE AT

01:32.759 --> 01:35.162
GAINED 236 POINTS TO CLOSE AT
18,000.

01:35.162 --> 01:36.930
18,000.
THE NASDAQ ROSE MORE THAN 60

01:36.930 --> 01:37.431
THE NASDAQ ROSE MORE THAN 60
POINTS, AND THE S&P 500 ADDED

01:37.431 --> 01:41.401
POINTS, AND THE S&P 500 ADDED
25.

01:41.401 --> 01:43.103
25.
ALSO TODAY, LOS ANGELES CITY

01:43.103 --> 01:44.871
ALSO TODAY, LOS ANGELES CITY
COUNCIL GAVE FINAL APPROVAL TO

01:44.871 --> 01:45.906
COUNCIL GAVE FINAL APPROVAL TO
RAISING THE LOCAL MINIMUM WAGE,

01:45.906 --> 01:47.774
RAISING THE LOCAL MINIMUM WAGE,
TO $15 AN HOUR.

01:47.774 --> 01:48.909
TO $15 AN HOUR.
IT'S THE LARGEST AMERICAN CITY

01:48.909 --> 01:51.445
IT'S THE LARGEST AMERICAN CITY
TO TAKE THAT STEP.

01:51.445 --> 01:53.146
TO TAKE THAT STEP.
THE U.S. ENVIRONMENTAL

01:53.146 --> 01:54.915
THE U.S. ENVIRONMENTAL
PROTECTION AGENCY IS MOVING TO

01:54.915 --> 01:55.315
PROTECTION AGENCY IS MOVING TO
CURB EMISSIONS FROM COMMERCIAL

01:55.315 --> 01:57.284
CURB EMISSIONS FROM COMMERCIAL
AIRCRAFT.

01:57.284 --> 01:59.219
AIRCRAFT.
E.P.A. DECLARED TODAY THAT

01:59.219 --> 02:01.221
E.P.A. DECLARED TODAY THAT
GREENHOUSE GASES FROM PASSENGER

02:01.221 --> 02:03.256
GREENHOUSE GASES FROM PASSENGER
AIRLINERS, CARGO PLANES AND

02:03.256 --> 02:03.957
AIRLINERS, CARGO PLANES AND
BUSINESS JETS ARE A DANGER TO

02:03.957 --> 02:06.026
BUSINESS JETS ARE A DANGER TO
PUBLIC HEALTH.

02:06.026 --> 02:07.761
PUBLIC HEALTH.
MILITARY AIRCRAFT AND SMALLER

02:07.761 --> 02:08.762
MILITARY AIRCRAFT AND SMALLER
PLANES WOULD BE EXEMPT FROM ANY

02:08.762 --> 02:11.698
PLANES WOULD BE EXEMPT FROM ANY
NEW REGULATIONS.

02:11.698 --> 02:13.767
NEW REGULATIONS.
THE TOP FEDERAL HEALTH OFFICIAL

02:13.767 --> 02:15.702
THE TOP FEDERAL HEALTH OFFICIAL
WARNED CONGRESS TODAY OVER A

02:15.702 --> 02:16.636
WARNED CONGRESS TODAY OVER A
LOOMING SUPREME COURT DECISION

02:16.636 --> 02:18.572
LOOMING SUPREME COURT DECISION
ON HEALTH CARE.

02:18.572 --> 02:20.807
ON HEALTH CARE.
AT ISSUE IS WHETHER FEDERAL

02:20.807 --> 02:22.175
AT ISSUE IS WHETHER FEDERAL
SUBSIDIES APPLY IN 34 STATES

02:22.175 --> 02:22.809
SUBSIDIES APPLY IN 34 STATES
WITHOUT THEIR OWN INSURANCE

02:22.809 --> 02:24.978
WITHOUT THEIR OWN INSURANCE
EXCHANGES.

02:24.978 --> 02:27.547
EXCHANGES.
IF THE COURT SAYS "NO," MORE

02:27.547 --> 02:28.048
IF THE COURT SAYS "NO," MORE
THAN SIX MILLION PEOPLE WOULD

02:28.048 --> 02:29.783
THAN SIX MILLION PEOPLE WOULD
LOSE THEIR SUBSIDIES.

02:29.783 --> 02:31.184
LOSE THEIR SUBSIDIES.
AT A HOUSE HEARING, THE

02:31.184 --> 02:33.153
AT A HOUSE HEARING, THE
SECRETARY OF HEALTH AND HUMAN

02:33.153 --> 02:34.287
SECRETARY OF HEALTH AND HUMAN
SERVICES, SYLVIA BURWELL, SAID

02:34.287 --> 02:37.724
SERVICES, SYLVIA BURWELL, SAID
LAWMAKERS WILL FEEL THE HEAT.

02:37.724 --> 02:41.128
LAWMAKERS WILL FEEL THE HEAT.
>> IF THE COURT SAYS THAT WE DO

02:41.128 --> 02:43.597
>> IF THE COURT SAYS THAT WE DO
NOT HAVE THE AUTHORITY TO GIVE

02:43.597 --> 02:45.032
NOT HAVE THE AUTHORITY TO GIVE
SUBSIDIES, THE CRITICAL

02:45.032 --> 02:47.167
SUBSIDIES, THE CRITICAL
DECISIONS WILL SIT WITH THE

02:47.167 --> 02:48.869
DECISIONS WILL SIT WITH THE
CONGRESS, AND STATES AND

02:48.869 --> 02:50.570
CONGRESS, AND STATES AND
GOVERNORS TO DETERMINE IF THOSE

02:50.570 --> 02:53.173
GOVERNORS TO DETERMINE IF THOSE
SUBSIDIES ARE AVAILABLE.

02:53.173 --> 02:55.008
SUBSIDIES ARE AVAILABLE.
>> Woodruff: THE SUPREME COURT'S

02:55.008 --> 02:55.409
>> Woodruff: THE SUPREME COURT'S
DECISION IS DUE BEFORE MONTH'S

02:55.409 --> 02:57.277
DECISION IS DUE BEFORE MONTH'S
END.

02:57.277 --> 03:00.113
END.
POPE FRANCIS CREATED A TRIBUNAL

03:00.113 --> 03:02.649
POPE FRANCIS CREATED A TRIBUNAL
TODAY TO PURSUE CATHOLIC BISHOPS

03:02.649 --> 03:04.918
TODAY TO PURSUE CATHOLIC BISHOPS
WHO FAIL TO STOP PRIESTS FROM

03:04.918 --> 03:06.787
WHO FAIL TO STOP PRIESTS FROM
COMMITTING.

03:06.787 --> 03:08.822
COMMITTING.
A VATICAN ANNOUNCEMENT SAID THE

03:08.822 --> 03:10.757
A VATICAN ANNOUNCEMENT SAID THE
NEW PANEL WILL: "...JUDGE

03:10.757 --> 03:12.459
NEW PANEL WILL: "...JUDGE
BISHOPS WITH REGARD TO CRIMES OF

03:12.459 --> 03:14.094
BISHOPS WITH REGARD TO CRIMES OF
THE ABUSE OF OFFICE WHEN

03:14.094 --> 03:15.362
THE ABUSE OF OFFICE WHEN
CONNECTED TO THE (SEXUAL) ABUSE

03:15.362 --> 03:16.897
CONNECTED TO THE (SEXUAL) ABUSE
OF MINORS."

03:16.897 --> 03:18.832
OF MINORS."
THE POPE ALSO MET TODAY WITH

03:18.832 --> 03:20.467
THE POPE ALSO MET TODAY WITH
RUSSIA'S PRESIDENT VLADIMIR

03:20.467 --> 03:22.536
RUSSIA'S PRESIDENT VLADIMIR
PUTIN, AND PRESSED FOR A

03:22.536 --> 03:23.303
PUTIN, AND PRESSED FOR A
"SINCERE EFFORT" AT MAKING PEACE

03:23.303 --> 03:25.705
"SINCERE EFFORT" AT MAKING PEACE
IN UKRAINE.

03:25.705 --> 03:26.907
IN UKRAINE.
THE HOUR-LONG SIT-DOWN CAME AT

03:26.907 --> 03:28.942
THE HOUR-LONG SIT-DOWN CAME AT
THE VATICAN.

03:28.942 --> 03:31.144
THE VATICAN.
A PAPAL SPOKESMAN SAID FRANCIS

03:31.144 --> 03:32.779
A PAPAL SPOKESMAN SAID FRANCIS
APPEALED FOR AN END TO FIGHTING

03:32.779 --> 03:33.547
APPEALED FOR AN END TO FIGHTING
BETWEEN UKRAINE'S GOVERNMENT AND

03:33.547 --> 03:36.650
BETWEEN UKRAINE'S GOVERNMENT AND
PRO-RUSSIAN REBELS.

03:36.650 --> 03:38.318
PRO-RUSSIAN REBELS.
IN EGYPT, A SUICIDE BOMBER

03:38.318 --> 03:40.220
IN EGYPT, A SUICIDE BOMBER
TARGETED ONE OF THE COUNTRY'S

03:40.220 --> 03:42.422
TARGETED ONE OF THE COUNTRY'S
BEST-KNOWN ANTIQUITIES

03:42.422 --> 03:43.256
BEST-KNOWN ANTIQUITIES
TODAY.

03:43.256 --> 03:44.691
TODAY.
AUTHORITIES SAID THE ATTACKER

03:44.691 --> 03:45.926
AUTHORITIES SAID THE ATTACKER
BLEW HIMSELF UP IN THE PARKING

03:45.926 --> 03:47.694
BLEW HIMSELF UP IN THE PARKING
LOT NEXT TO LUXOR'S ANCIENT

03:47.694 --> 03:49.096
LOT NEXT TO LUXOR'S ANCIENT
KARNAK TEMPLE, AFTER GUARDS

03:49.096 --> 03:50.831
KARNAK TEMPLE, AFTER GUARDS
BLOCKED HIM FROM ENTERING.

03:50.831 --> 03:51.431
BLOCKED HIM FROM ENTERING.
THAT TRIGGERED A GUNFIGHT WITH

03:51.431 --> 03:56.770
THAT TRIGGERED A GUNFIGHT WITH
TWO OTHER MEN.

03:56.770 --> 03:58.371
TWO OTHER MEN. >> (
translated): I SAW
SOMEONE

03:58.371 --> 03:59.773
>> (translated): I SAW
SOMEONE RUNNING AND SUDDENLY SAW
THE

03:59.773 --> 04:01.208
RUNNING AND SUDDENLY SAW THE
EXPLOSION AND AFTER THE

04:01.208 --> 04:02.976
EXPLOSION AND AFTER THE
EXPLOSION I SAW THAT A TAXI

04:02.976 --> 04:04.344
EXPLOSION I SAW THAT A TAXI
DRIVER HAD CAUGHT ONE OF THE

04:04.344 --> 04:05.112
DRIVER HAD CAUGHT ONE OF THE
ATTACKERS AND WAS BEATING HIM

04:05.112 --> 04:06.379
ATTACKERS AND WAS BEATING HIM
AND SHOUTING FOR HELP.

04:06.379 --> 04:07.681
AND SHOUTING FOR HELP.
SO I RAN TO HELP.

04:07.681 --> 04:09.216
SO I RAN TO HELP.
ANOTHER ATTACKER STARTED

04:09.216 --> 04:10.917
ANOTHER ATTACKER STARTED
SHOOTING AT US AND CAME AND SHOT

04:10.917 --> 04:11.318
SHOOTING AT US AND CAME AND SHOT
THE CAPTURED ATTACKER IN THE

04:11.318 --> 04:12.452
THE CAPTURED ATTACKER IN THE
HEAD.

04:12.452 --> 04:13.019
HEAD.
THEN A POLICEMAN CAME AND SHOT

04:13.019 --> 04:14.821
THEN A POLICEMAN CAME AND SHOT
HIM.

04:14.821 --> 04:17.057
HIM.
>> Woodruff: NO TOURISTS WERE

04:17.057 --> 04:18.625
>> Woodruff: NO TOURISTS WERE
KILLED OR HURT, AND THE TEMPLE

04:18.625 --> 04:20.127
KILLED OR HURT, AND THE TEMPLE
ITSELF WASN'T DAMAGED.

04:20.127 --> 04:21.895
ITSELF WASN'T DAMAGED.
IT WAS THE SECOND ATTACK THIS

04:21.895 --> 04:22.295
IT WAS THE SECOND ATTACK THIS
MONTH ON A MAJOR TOURIST SITE IN

04:22.295 --> 04:24.297
MONTH ON A MAJOR TOURIST SITE IN
EGYPT.

04:24.297 --> 04:26.900
EGYPT.
THE CORRUPTION SCANDAL AT

04:26.900 --> 04:28.368
THE CORRUPTION SCANDAL AT
SOCCER'S WORLD GOVERNING BODY

04:28.368 --> 04:29.669
SOCCER'S WORLD GOVERNING BODY
HAS POSTPONED BIDDING FOR THE

04:29.669 --> 04:32.005
HAS POSTPONED BIDDING FOR THE
2026 WORLD CUP.

04:32.005 --> 04:34.074
2026 WORLD CUP.
THE HEAD OF FIFA SAID TODAY IT

04:34.074 --> 04:35.142
THE HEAD OF FIFA SAID TODAY IT
WOULD BE "NONSENSE" TO START THE

04:35.142 --> 04:36.743
WOULD BE "NONSENSE" TO START THE
PROCESS THIS WEEK.

04:36.743 --> 04:38.845
PROCESS THIS WEEK.
SEPARATE U.S. AND SWISS

04:38.845 --> 04:40.881
SEPARATE U.S. AND SWISS
INVESTIGATIONS ARE UNDER WAY

04:40.881 --> 04:43.316
INVESTIGATIONS ARE UNDER WAY
INTO ALLEGED BRIBERY AT FIFA.

04:43.316 --> 04:44.818
INTO ALLEGED BRIBERY AT FIFA.
BACK IN THIS COUNTRY, THERE'S

04:44.818 --> 04:46.219
BACK IN THIS COUNTRY, THERE'S
NEW INFORMATION ABOUT THE FATAL

04:46.219 --> 04:46.887
NEW INFORMATION ABOUT THE FATAL
AMTRAK CRASH IN PHILADELPHIA

04:46.887 --> 04:48.655
AMTRAK CRASH IN PHILADELPHIA
LAST MONTH.

04:48.655 --> 04:50.724
LAST MONTH.
THE NATIONAL TRANSPORTATION

04:50.724 --> 04:52.159
THE NATIONAL TRANSPORTATION
SAFETY BOARD NOW SAYS THE

04:52.159 --> 04:55.195
SAFETY BOARD NOW SAYS THE
ENGINEER WAS NOT USING HIS CELL

04:55.195 --> 04:56.796
ENGINEER WAS NOT USING HIS CELL
PHONE TO TALK, TEXT OR DOWNLOAD

04:56.796 --> 04:58.798
PHONE TO TALK, TEXT OR DOWNLOAD
DATA BEFORE THE WRECK.

04:58.798 --> 04:59.699
DATA BEFORE THE WRECK.
BUT A BOARD MEMBER TOLD SENATORS

04:59.699 --> 05:03.270
BUT A BOARD MEMBER TOLD SENATORS
THE PROBE ISN'T OVER.

05:03.270 --> 05:05.105
THE PROBE ISN'T OVER.
>> THERE ARE 400,000 PIECES OF

05:05.105 --> 05:08.975
>> THERE ARE 400,000 PIECES OF
DATA INVOLVED IN THE ANALYSIS

05:08.975 --> 05:11.044
DATA INVOLVED IN THE ANALYSIS
AND BECAUSE OF THE EXTENT OF

05:11.044 --> 05:13.313
AND BECAUSE OF THE EXTENT OF
THAT, THINGS LIKE THE USE OF AN

05:13.313 --> 05:14.114
THAT, THINGS LIKE THE USE OF AN
APP OR THE OTHER USE OF A PHONE

05:14.114 --> 05:15.815
APP OR THE OTHER USE OF A PHONE
HAS NOT BEEN DETERMINED.

05:15.815 --> 05:17.417
HAS NOT BEEN DETERMINED.
>> Woodruff: EIGHT PEOPLE WERE

05:17.417 --> 05:18.451
>> Woodruff: EIGHT PEOPLE WERE
KILLED AND MORE THAN 200 WERE

05:18.451 --> 05:21.121
KILLED AND MORE THAN 200 WERE
HURT IN THE PHILADELPHIA CRASH.

05:21.121 --> 05:23.290
HURT IN THE PHILADELPHIA CRASH.
U.S. SENATOR JOHNNY ISAKSON

05:23.290 --> 05:24.925
U.S. SENATOR JOHNNY ISAKSON
REVEALED TODAY HE HAS EARLY-

05:24.925 --> 05:26.760
REVEALED TODAY HE HAS EARLY-
STAGE PARKINSON'S DISEASE.

05:26.760 --> 05:28.361
STAGE PARKINSON'S DISEASE.
THE GEORGIA REPUBLICAN SAID HE

05:28.361 --> 05:29.196
THE GEORGIA REPUBLICAN SAID HE
STILL PLANS TO RUN FOR A THIRD

05:29.196 --> 05:30.864
STILL PLANS TO RUN FOR A THIRD
TERM NEXT YEAR.

05:30.864 --> 05:32.732
TERM NEXT YEAR.
ISAKSON IS 70.

05:32.732 --> 05:34.968
ISAKSON IS 70.
HE SAID HE WAS DIAGNOSED IN

05:34.968 --> 05:36.536
HE SAID HE WAS DIAGNOSED IN
2013, BUT DID NOT TELL HIS

05:36.536 --> 05:36.970
2013, BUT DID NOT TELL HIS
CHILDREN OR STAFF UNTIL

05:36.970 --> 05:39.005
CHILDREN OR STAFF UNTIL
RECENTLY.

05:39.005 --> 05:40.874
RECENTLY.
PARKINSON'S IS A PROGRESSIVE

05:40.874 --> 05:41.074
PARKINSON'S IS A PROGRESSIVE
DISORDER OF THE CENTRAL NERVOUS

05:41.074 --> 05:43.009
DISORDER OF THE CENTRAL NERVOUS
SYSTEM.

05:43.009 --> 05:45.378
SYSTEM.
AND, THE LIBRARIAN OF CONGRESS

05:45.378 --> 05:47.347
AND, THE LIBRARIAN OF CONGRESS
JAMES BILLINGTON IS STEPPING

05:47.347 --> 05:50.016
JAMES BILLINGTON IS STEPPING
DOWN AFTER NEARLY THREE DECADES.

05:50.016 --> 05:50.951
DOWN AFTER NEARLY THREE DECADES.
HE'S 86 AND PLANS TO RETIRE

05:50.951 --> 05:53.186
HE'S 86 AND PLANS TO RETIRE
JANUARY 1.

05:53.186 --> 05:55.121
JANUARY 1.
BILLINGTON IS CREDITED WITH

05:55.121 --> 05:56.790
BILLINGTON IS CREDITED WITH
BRINGING THE WORLD'S LARGEST

05:56.790 --> 05:57.724
BRINGING THE WORLD'S LARGEST
LIBRARY INTO THE DIGITAL AGE AND

05:57.724 --> 05:58.058
LIBRARY INTO THE DIGITAL AGE AND

05:58.058 --> 06:02.429
DOUBLING ITS SIZE TO 160 MILLION
ITEMS.

06:02.429 --> 06:04.464
ITEMS.
STILL TO COME ON THE NEWSHOUR:

06:04.464 --> 06:05.799
STILL TO COME ON THE NEWSHOUR:
SEARCHING FOR THE BEST WAY TO

06:05.799 --> 06:06.433
SEARCHING FOR THE BEST WAY TO
DEFEAT THE ISLAMIC STATE

06:06.433 --> 06:08.735
DEFEAT THE ISLAMIC STATE
INSURGENCY.

06:08.735 --> 06:10.770
INSURGENCY.
THE HYPE AND HOPE FOR NEW DRUGS

06:10.770 --> 06:13.106
THE HYPE AND HOPE FOR NEW DRUGS
TO TREAT BAD CHOLESTEROL.

06:13.106 --> 06:15.141
TO TREAT BAD CHOLESTEROL.
SALTY WALTERS INTRUDE AND

06:15.141 --> 06:15.909
SALTY WALTERS INTRUDE AND
THREATEN WILDLIFE IN FLORIDA'S

06:15.909 --> 06:17.677
THREATEN WILDLIFE IN FLORIDA'S
EVERGLADES.

06:17.677 --> 06:19.946
EVERGLADES.
AND, THE FIRST LATINO POET

06:19.946 --> 06:20.547
AND, THE FIRST LATINO POET
LAUREATE STEPS ONTO THE LARGER

06:20.547 --> 06:23.984
LAUREATE STEPS ONTO THE LARGER
NATIONAL STAGE.

06:23.984 --> 06:34.961
>> Woodruff: ONE YEAR AGO TODAY,
THE ISLAMIC STATE GROUP SHOCKED

06:34.961 --> 06:36.997
THE ISLAMIC STATE GROUP SHOCKED
MANY AROUND THE WORLD AS IT

06:36.997 --> 06:37.931
MANY AROUND THE WORLD AS IT
CAPTURED MOSUL, IRAQ'S SECOND

06:37.931 --> 06:39.966
CAPTURED MOSUL, IRAQ'S SECOND
LARGEST CITY.

06:39.966 --> 06:42.269
LARGEST CITY.
ONE YEAR LATER, IRAQ IS MIRED

06:42.269 --> 06:44.304
ONE YEAR LATER, IRAQ IS MIRED
IN A MULTI-FRONT WAR WITH THE

06:44.304 --> 06:45.405
IN A MULTI-FRONT WAR WITH THE
EXTREMIST ORGANIZATION AND

06:45.405 --> 06:47.407
EXTREMIST ORGANIZATION AND
THOUSANDS HAVE BEEN KILLED.

06:47.407 --> 06:49.509
THOUSANDS HAVE BEEN KILLED.
THE WHITE HOUSE ANNOUNCED THIS

06:49.509 --> 06:51.278
THE WHITE HOUSE ANNOUNCED THIS
AFTERNOON THAT IT WILL SEND MORE

06:51.278 --> 06:52.445
AFTERNOON THAT IT WILL SEND MORE
TROOPS TO HELP IRAQIS IN THE

06:52.445 --> 06:54.047
TROOPS TO HELP IRAQIS IN THE
FIGHT.

06:54.047 --> 06:56.283
FIGHT.
TONIGHT, WE'LL EXPLORE THAT

06:56.283 --> 06:58.018
TONIGHT, WE'LL EXPLORE THAT
DECISION AND TAKE A LOOK BACK AT

06:58.018 --> 06:59.853
DECISION AND TAKE A LOOK BACK AT
THE RISE OF THE ISLAMIC STATE

06:59.853 --> 07:01.054
THE RISE OF THE ISLAMIC STATE
IN IRAQ AS PART OF OUR SERIES

07:01.054 --> 07:04.758
IN IRAQ AS PART OF OUR SERIES
"NO END IN SIGHT."

07:04.758 --> 07:08.395
"NO END IN SIGHT."
>> THE PRESIDENT HAS BEEN VERY

07:08.395 --> 07:09.829
>> THE PRESIDENT HAS BEEN VERY
CLEAR THAT THE EFFORTS OF THE

07:09.829 --> 07:11.097
CLEAR THAT THE EFFORTS OF THE
UNITED STATES AND OUR COALITION

07:11.097 --> 07:11.731
UNITED STATES AND OUR COALITION
PARTNERS WILL BE TO SUPPORT THE

07:11.731 --> 07:12.332
PARTNERS WILL BE TO SUPPORT THE
IRAQI PEOPLE.

07:12.332 --> 07:13.466
IRAQI PEOPLE.
WE WILL NOT DO FOR THEM WHAT

07:13.466 --> 07:15.201
WE WILL NOT DO FOR THEM WHAT
THEY MUST DO FOR THEMSELVES.

07:15.201 --> 07:17.103
THEY MUST DO FOR THEMSELVES.
>> Woodruff: THE WHITE HOUSE

07:17.103 --> 07:19.406
>> Woodruff: THE WHITE HOUSE
LAID OUT PLANS TO SEND UP TO 450

07:19.406 --> 07:22.075
LAID OUT PLANS TO SEND UP TO 450
ADDITIONAL MILITARY TRAINERS,

07:22.075 --> 07:24.177
ADDITIONAL MILITARY TRAINERS,
JOINING 3,100 TROOPS ALREADY

07:24.177 --> 07:24.944
JOINING 3,100 TROOPS ALREADY
THERE, AND ESTABLISH A FIFTH

07:24.944 --> 07:26.646
THERE, AND ESTABLISH A FIFTH
TRAINING BASE.

07:26.646 --> 07:29.015
TRAINING BASE.
SPOKESMAN JOSH EARNEST:

07:29.015 --> 07:31.117
SPOKESMAN JOSH EARNEST:
>> IT REFLECTS THE NEED FOR THE

07:31.117 --> 07:32.352
>> IT REFLECTS THE NEED FOR THE
UNITED STATES, OUR COALITION

07:32.352 --> 07:34.954
UNITED STATES, OUR COALITION
PARTNERS AND FOR THE IRAQI

07:34.954 --> 07:37.891
PARTNERS AND FOR THE IRAQI
GOVERNMENT TO BE NIMBLE AS WE

07:37.891 --> 07:39.926
GOVERNMENT TO BE NIMBLE AS WE
RESPOND TO AN ADVERSARY, AN

07:39.926 --> 07:41.294
RESPOND TO AN ADVERSARY, AN
OPPONENT ON THE GROUND IN IRAQ

07:41.294 --> 07:42.529
OPPONENT ON THE GROUND IN IRAQ
THAT HAS ALSO DEMONSTRATED A

07:42.529 --> 07:43.863
THAT HAS ALSO DEMONSTRATED A
CAPACITY TO ADAPT THEIR TACTICS

07:43.863 --> 07:44.597
CAPACITY TO ADAPT THEIR TACTICS
AND TO TRY TO CAPITALIZE ON

07:44.597 --> 07:47.067
AND TO TRY TO CAPITALIZE ON
THEIR PERCEPTION OF WEAKNESSES.

07:47.067 --> 07:48.902
THEIR PERCEPTION OF WEAKNESSES.
>> Woodruff: ALL THIS FOLLOWS

07:48.902 --> 07:50.537
>> Woodruff: ALL THIS FOLLOWS
THE ISLAMIC STATE'S CAPTURE LAST

07:50.537 --> 07:52.405
THE ISLAMIC STATE'S CAPTURE LAST
MONTH OF RAMADI, CAPITAL OF

07:52.405 --> 07:55.241
MONTH OF RAMADI, CAPITAL OF
IRAQ'S LARGEST PROVINCE, ANBAR.

07:55.241 --> 07:56.609
IRAQ'S LARGEST PROVINCE, ANBAR.
GOVERNMENT SOLDIERS FLED BEFORE

07:56.609 --> 07:58.812
GOVERNMENT SOLDIERS FLED BEFORE
THE MILITANTS.

07:58.812 --> 08:01.214
THE MILITANTS.
AND MONDAY, AT THE G-7 SUMMIT,

08:01.214 --> 08:02.916
AND MONDAY, AT THE G-7 SUMMIT,
PRESIDENT OBAMA SAID THERE'S NO

08:02.916 --> 08:04.818
PRESIDENT OBAMA SAID THERE'S NO
"COMPLETE STRATEGY" FOR

08:04.818 --> 08:06.119
"COMPLETE STRATEGY" FOR
DEFEATING THE GROUP, UNTIL THE

08:06.119 --> 08:08.088
DEFEATING THE GROUP, UNTIL THE
IRAQIS ARE READY.

08:08.088 --> 08:10.256
IRAQIS ARE READY.
THAT BROUGHT RENEWED CRITICISM

08:10.256 --> 08:12.058
THAT BROUGHT RENEWED CRITICISM
FROM REPUBLICANS, WHICH HOUSE

08:12.058 --> 08:13.126
FROM REPUBLICANS, WHICH HOUSE
SPEAKER JOHN BOEHNER ECHOED

08:13.126 --> 08:14.627
SPEAKER JOHN BOEHNER ECHOED
AFTER TODAY'S ANNOUNCEMENT.

08:14.627 --> 08:16.162
AFTER TODAY'S ANNOUNCEMENT.
>> I THINK ITS A STEP, IT'S A

08:16.162 --> 08:17.664
>> I THINK ITS A STEP, IT'S A
STEP IN THE RIGHT DIRECTION BUT

08:17.664 --> 08:18.932
STEP IN THE RIGHT DIRECTION BUT
AS THE PRESIDENT ADMITTED THE

08:18.932 --> 08:19.165
AS THE PRESIDENT ADMITTED THE
OTHER DAY, HE HAS NO STRATEGY TO

08:19.165 --> 08:21.067
OTHER DAY, HE HAS NO STRATEGY TO
WIN.

08:21.067 --> 08:23.236
WIN.
>> Woodruff: EVEN TODAY, WHITE

08:23.236 --> 08:25.305
>> Woodruff: EVEN TODAY, WHITE
HOUSE AND PENTAGON OFFICIALS

08:25.305 --> 08:27.407
HOUSE AND PENTAGON OFFICIALS
SAID THERE'S NO MAJOR CHANGE IN

08:27.407 --> 08:28.842
SAID THERE'S NO MAJOR CHANGE IN
EXISTING POLICY, AND NO PLANS TO

08:28.842 --> 08:31.378
EXISTING POLICY, AND NO PLANS TO
SEND U.S. COMBAT TROOPS.

08:31.378 --> 08:34.447
SEND U.S. COMBAT TROOPS.
BUT THERE WILL BE AT LEAST ONE

08:34.447 --> 08:36.383
BUT THERE WILL BE AT LEAST ONE
SUBSTANTIAL EFFECT: THE NEW

08:36.383 --> 08:38.651
SUBSTANTIAL EFFECT: THE NEW
FOCUS ON RAMADI AND FALLUJAH IN

08:38.651 --> 08:40.987
FOCUS ON RAMADI AND FALLUJAH IN
ANBAR PROVINCE IS LIKELY TO

08:40.987 --> 08:43.189
ANBAR PROVINCE IS LIKELY TO
DELAY A PLANNED CAMPAIGN TO

08:43.189 --> 08:45.058
DELAY A PLANNED CAMPAIGN TO
RECAPTURE MOSUL IN THE NORTH,

08:45.058 --> 08:48.128
RECAPTURE MOSUL IN THE NORTH,
IRAQ'S SECOND LARGEST CITY.

08:48.128 --> 08:50.363
IRAQ'S SECOND LARGEST CITY.
IT'S BEEN ONE YEAR SINCE ISLAMIC

08:50.363 --> 08:52.532
IT'S BEEN ONE YEAR SINCE ISLAMIC
STATE FORCES, IN A LIGHTNING

08:52.532 --> 08:54.868
STATE FORCES, IN A LIGHTNING
ADVANCE, SEIZED MOSUL, A

08:54.868 --> 08:55.368
ADVANCE, SEIZED MOSUL, A
STRATEGIC OIL HUB AND A GATEWAY

08:55.368 --> 08:58.138
STRATEGIC OIL HUB AND A GATEWAY
TO SYRIA.

08:58.138 --> 09:01.141
TO SYRIA.
AS IN RAMADI, IRAQI SOLDIERS PUT

09:01.141 --> 09:03.243
AS IN RAMADI, IRAQI SOLDIERS PUT
DOWN THEIR GUNS, AND MANY SHED

09:03.243 --> 09:05.044
DOWN THEIR GUNS, AND MANY SHED
THEIR UNIFORMS, LEAVING THEM IN

09:05.044 --> 09:05.245
THEIR UNIFORMS, LEAVING THEM IN
THE STREETS FOR ENEMY FIGHTERS

09:05.245 --> 09:08.181
THE STREETS FOR ENEMY FIGHTERS
TO FIND.

09:08.181 --> 09:10.316
TO FIND.
TRIUMPHANT MILITANTS PARADED

09:10.316 --> 09:12.385
TRIUMPHANT MILITANTS PARADED
THROUGH THE STREETS, AND

09:12.385 --> 09:14.154
THROUGH THE STREETS, AND
REFUGEES FLED TO CAMPS IN THE

09:14.154 --> 09:14.287
REFUGEES FLED TO CAMPS IN THE
KURDISH REGION, WHERE THOUSANDS

09:14.287 --> 09:17.624
KURDISH REGION, WHERE THOUSANDS
REMAIN.

09:17.624 --> 09:19.659
REMAIN. >> (translated
): IMPOSSIBLE,

09:19.659 --> 09:20.693
>> (translated):
IMPOSSIBLE, IT'S IMPOSSIBLE TO
THINK I'VE

09:20.693 --> 09:22.028
IT'S IMPOSSIBLE TO THINK I'VE
BEEN OUT OF THE TOWN FOR ONE

09:22.028 --> 09:23.163
BEEN OUT OF THE TOWN FOR ONE
YEAR NOW, OR THAT THE CURRENT

09:23.163 --> 09:23.596
YEAR NOW, OR THAT THE CURRENT
SITUATION WOULD TAKE SUCH A LONG

09:23.596 --> 09:25.231
SITUATION WOULD TAKE SUCH A LONG
TIME.

09:25.231 --> 09:28.701
TIME.
I COULD HAVE NEVER IMAGINED THAT

09:28.701 --> 09:29.569
I COULD HAVE NEVER IMAGINED THAT
ON THIS DE, 9ATTH AND 10TH OF

09:29.569 --> 09:30.370
ON THIS DE, 9ATTH AND 10TH OF
JUNE, I'D BE HERE IN THIS PLACE.

09:30.370 --> 09:30.837
JUNE, I'D BE HERE IN THIS PLACE.
IT'S A VERY SAD AND PAINFUL

09:30.837 --> 09:32.472
IT'S A VERY SAD AND PAINFUL
ANNIVERSARY.

09:32.472 --> 09:34.574
ANNIVERSARY.
>> Woodruff: IN THE MEANTIME,

09:34.574 --> 09:36.709
>> Woodruff: IN THE MEANTIME,
THE ISLAMIC STATE ESTABLISHED A

09:36.709 --> 09:38.545
THE ISLAMIC STATE ESTABLISHED A
SO-CALLED CALIPHATE ACROSS LARGE

09:38.545 --> 09:40.280
SO-CALLED CALIPHATE ACROSS LARGE
SWATHS OF NORTHERN SYRIA AND

09:40.280 --> 09:41.481
SWATHS OF NORTHERN SYRIA AND
IRAQ, AND REACHED WITHIN 50

09:41.481 --> 09:45.418
IRAQ, AND REACHED WITHIN 50
MILES OF BAGHDAD.

09:45.418 --> 09:47.487
MILES OF BAGHDAD.
AS THEY ADVANCED, THE MILITANTS

09:47.487 --> 09:49.122
AS THEY ADVANCED, THE MILITANTS
CARRIED OUT A REI OF GNTERROR,

09:49.122 --> 09:50.957
CARRIED OUT A REI OF GNTERROR,
INCLUDING BEHEADINGS OF

09:50.957 --> 09:52.559
INCLUDING BEHEADINGS OF
HOSTAGES, BRUTAL TREATMENT OF

09:52.559 --> 09:53.526
HOSTAGES, BRUTAL TREATMENT OF
WOMEN, AND DESTRUCTION OF

09:53.526 --> 09:56.229
WOMEN, AND DESTRUCTION OF
ANCIENT ARTIFACTS.

09:56.229 --> 09:58.465
ANCIENT ARTIFACTS.
AND, THEIR INFLUENCE SPREAD ON A

09:58.465 --> 10:00.700
AND, THEIR INFLUENCE SPREAD ON A
GLOBAL SCALE, ATTRACTING UP TO

10:00.700 --> 10:02.469
GLOBAL SCALE, ATTRACTING UP TO
31,000 NEW FOREIGN FIGHTERS TO

10:02.469 --> 10:04.971
31,000 NEW FOREIGN FIGHTERS TO
THE REGION.

10:04.971 --> 10:07.173
THE REGION.
PRESIDENT OBAMA HAD ONCE PLAYED

10:07.173 --> 10:09.175
PRESIDENT OBAMA HAD ONCE PLAYED
DOWN THE THREAT, LIKENING THE

10:09.175 --> 10:11.010
DOWN THE THREAT, LIKENING THE
SUNNI MILITANT GROUP TO A JUNIOR

10:11.010 --> 10:13.480
SUNNI MILITANT GROUP TO A JUNIOR
VARSITY VERSION OF AL QAEDA.

10:13.480 --> 10:15.348
VARSITY VERSION OF AL QAEDA.
AFTER THE FALL OF MOSUL, HE

10:15.348 --> 10:16.716
AFTER THE FALL OF MOSUL, HE
LAUNCHED REPEATED AIR STRIKES IN

10:16.716 --> 10:18.485
LAUNCHED REPEATED AIR STRIKES IN
IRAQ AND SYRIA.

10:18.485 --> 10:20.553
IRAQ AND SYRIA.
AND, HE ANNOUNCED THE INITIAL

10:20.553 --> 10:23.323
AND, HE ANNOUNCED THE INITIAL
EFFORT TO TRAIN IRAQI FORCES.

10:23.323 --> 10:24.724
EFFORT TO TRAIN IRAQI FORCES.
THE FALLOUT FROM MOSUL ALSO

10:24.724 --> 10:25.625
THE FALLOUT FROM MOSUL ALSO
TRIGGERED A POLITICAL SHAKEUP IN

10:25.625 --> 10:27.360
TRIGGERED A POLITICAL SHAKEUP IN
IRAQ.

10:27.360 --> 10:29.662
IRAQ.
PRIME MINISTER NOURI AL-MALIKI

10:29.662 --> 10:31.764
PRIME MINISTER NOURI AL-MALIKI
RESIGNED TWO MONTHS LATER, AND

10:31.764 --> 10:34.267
RESIGNED TWO MONTHS LATER, AND
HAIDER AL-ABADI TOOK OVER.

10:34.267 --> 10:35.768
HAIDER AL-ABADI TOOK OVER.
HE'S SINCE COMPLAINED THAT U.S.

10:35.768 --> 10:36.269
HE'S SINCE COMPLAINED THAT U.S.
HELP HAS BEEN TOO LITTLE AND TOO

10:36.269 --> 10:40.106
HELP HAS BEEN TOO LITTLE AND TOO
LATE.

10:40.106 --> 10:41.674
LATE. >> (translated
): AS YOU KNOW

10:41.674 --> 10:42.775
>> (translated): AS YOU
KNOW ISLAMIC STATE WAS NOT BORN
IN

10:42.775 --> 10:44.377
ISLAMIC STATE WAS NOT BORN IN
IRAQ, THEY ARE SUPPORTED BY

10:44.377 --> 10:45.545
IRAQ, THEY ARE SUPPORTED BY
MEANS FROM OUTSIDE IRAQ, BY

10:45.545 --> 10:47.380
MEANS FROM OUTSIDE IRAQ, BY
EXTERNAL COMBATANTS.

10:47.380 --> 10:49.349
EXTERNAL COMBATANTS.
WE CAN MAKE SACRIFICES TO FIGHT,

10:49.349 --> 10:50.783
WE CAN MAKE SACRIFICES TO FIGHT,
BUT THINTEE RNATIONAL COMMUNITY,

10:50.783 --> 10:51.451
BUT THINTEE RNATIONAL COMMUNITY,
THE INTERNATIONAL COALITION HAS

10:51.451 --> 10:54.587
THE INTERNATIONAL COALITION HAS
TO SUPPORT US.

10:54.587 --> 10:56.523
TO SUPPORT US.
>> Woodruff: INSTEAD, ABADI'S

10:56.523 --> 10:58.391
>> Woodruff: INSTEAD, ABADI'S
GOVERNMENT IS RELYING HEAVILY ON

10:58.391 --> 10:59.692
GOVERNMENT IS RELYING HEAVILY ON
IRANIAN-BACKED SHIITE MILITIAS.

10:59.692 --> 11:00.360
IRANIAN-BACKED SHIITE MILITIAS.

11:00.360 --> 11:04.397
THEY WERE CRITICAL TO THE
RECAPTURE OF TIKRIT, IN APRIL.

11:04.397 --> 11:06.466
RECAPTURE OF TIKRIT, IN APRIL.
ISIS ALSO SUFFERED A SETBACK IN

11:06.466 --> 11:08.201
ISIS ALSO SUFFERED A SETBACK IN
SYRIA, WHERE KURDISH PESHMERGA

11:08.201 --> 11:10.103
SYRIA, WHERE KURDISH PESHMERGA
FORCES HELPED DRIVE THE

11:10.103 --> 11:11.237
FORCES HELPED DRIVE THE
MILITANTS BACK FROM KOBANI, ON

11:11.237 --> 11:13.239
MILITANTS BACK FROM KOBANI, ON
THE TURKISH BORDER.

11:13.239 --> 11:15.441
THE TURKISH BORDER.
BUT SUCH GAINS HAVE BEEN GREATLY

11:15.441 --> 11:17.377
BUT SUCH GAINS HAVE BEEN GREATLY
TEMPERED BY THE LOSSES OF RAMADI

11:17.377 --> 11:18.244
TEMPERED BY THE LOSSES OF RAMADI
AND THE ANCIENT SYRIAN CITY OF

11:18.244 --> 11:20.346
AND THE ANCIENT SYRIAN CITY OF
PALMYRA.

11:20.346 --> 11:23.116
PALMYRA.
A BIG QUESTION WILL NOW BE

11:23.116 --> 11:24.217
A BIG QUESTION WILL NOW BE
WHETHER TODAY'S U.S. MOVES CAN

11:24.217 --> 11:26.519
WHETHER TODAY'S U.S. MOVES CAN
HELP TURN THE TIDE.

11:26.519 --> 11:28.354
HELP TURN THE TIDE.
JOINING ME NOW TO REVIEW TODAY'S

11:28.354 --> 11:30.189
JOINING ME NOW TO REVIEW TODAY'S
ANNOUNCEMENT AND THE FIGHT

11:30.189 --> 11:32.125
ANNOUNCEMENT AND THE FIGHT
AGAINST THE ISLAMIC STATE IN

11:32.125 --> 11:33.660
AGAINST THE ISLAMIC STATE IN
IRAQ ARE: FORMER U.S. DEFENSE

11:33.660 --> 11:34.561
IRAQ ARE: FORMER U.S. DEFENSE
SECRETARY AND C.I.A. DIRECTOR,

11:34.561 --> 11:36.563
SECRETARY AND C.I.A. DIRECTOR,
LEON PANETTA.

11:36.563 --> 11:38.798
LEON PANETTA.
FORMER COMMANDER IN CHIEF OF

11:38.798 --> 11:40.466
FORMER COMMANDER IN CHIEF OF
U.S. CENTRAL COMMAND, RETIRED

11:40.466 --> 11:42.335
U.S. CENTRAL COMMAND, RETIRED
GENERAL ANTHONY ZINNI.

11:42.335 --> 11:44.137
GENERAL ANTHONY ZINNI.
FORMER UNDER SECRETARY OF POLICY

11:44.137 --> 11:45.238
FORMER UNDER SECRETARY OF POLICY
AT THE DEPARTMENT OF DEFENSE,

11:45.238 --> 11:47.307
AT THE DEPARTMENT OF DEFENSE,
MICHELE FLOURNOY.

11:47.307 --> 11:48.274
MICHELE FLOURNOY.
AND, RETIRED U.S. ARMY COLONEL

11:48.274 --> 11:52.879
AND, RETIRED U.S. ARMY COLONEL
ANDREW BACEVICH.

11:52.879 --> 11:53.813
ANDREW BACEVICH.
WELCOME TO ALL FOUR OF YOU.

11:53.813 --> 11:55.415
WELCOME TO ALL FOUR OF YOU.
LET ME JUST QUICKLY GO AROUND

11:55.415 --> 11:57.884
LET ME JUST QUICKLY GO AROUND
THE GROUP, TO BEGIN, AND GET

11:57.884 --> 12:00.253
THE GROUP, TO BEGIN, AND GET
YOUR RESPONSE TO THIS ADDITION

12:00.253 --> 12:02.755
YOUR RESPONSE TO THIS ADDITION
OF 450 MORE MILITARY ADVISORS IN

12:02.755 --> 12:03.189
OF 450 MORE MILITARY ADVISORS IN
IRAQ.

12:03.189 --> 12:05.892
IRAQ.
SECRETARY PANETTA, YOU FIRST.

12:05.892 --> 12:07.627
SECRETARY PANETTA, YOU FIRST.
>> WELL THERE'S NO QUESTION THAT

12:07.627 --> 12:09.262
>> WELL THERE'S NO QUESTION THAT
I THINK THE PRESIDENT'S TAKEN
